tests/data/psse_project/sample.seq
@!!IC, REV
0,     34           / PSS(R)E-34.x    TUE, FEB 24 2015  17:49
RPTFORMAT, AMPOUT=0, POLROU=0, AMPOUTZ=0, POLROUZ=0
MOV, ITERATIONS=20, TOLERANCE=0.01, MOVALPHA=0.3
SCMODEL, SCNRML=1
0 / END OF SYSTEM-WIDE DATA, BEGIN GENERATOR DATA
@!!  I,'ID',       ZRPOS,      ZXPPDV,       ZXPDV,       ZXSDV,       ZRNEG,     ZXNEGDV,         ZR0,       ZX0DV,CZG,       ZRG,         ZXG, REFDEG
   101,'1 ', 1.10100E-02, 3.00010E-01, 3.00010E-01, 3.00010E-01, 1.10200E-02, 3.00020E-01, 1.10300E-02, 3.00030E-01,1, 0.00000E+00, 0.00000E+00,-18.600
   102,'1 ', 1.05100E-02, 3.20010E-01, 3.20010E-01, 3.20010E-01, 1.05200E-02, 3.20020E-01, 1.05300E-02, 3.20030E-01,1, 0.00000E+00, 0.00000E+00,-18.954
   206,'1 ', 1.06100E-02, 2.51010E-01, 2.51010E-01, 2.51010E-01, 1.06200E-02, 2.51020E-01, 1.06300E-02, 2.51030E-01,1, 0.00000E+00, 0.00000E+00,-34.469
   211,'1 ', 1.08100E-02, 2.62010E-01, 2.62010E-01, 2.62010E-01, 1.08200E-02, 2.62020E-01, 1.08300E-02, 2.62030E-01,1, 0.00000E+00, 0.00000E+00,-17.125
   301,'1 ', 1.09100E-02, 2.30010E-01, 2.30010E-01, 2.30010E-01, 1.09200E-02, 2.30020E-01, 1.09300E-02, 2.30030E-01,1, 0.00000E+00, 0.00000E+00,  0.000
   301,'2 ', 1.10100E-02, 2.40010E-01, 2.40010E-01, 2.40010E-01, 1.10200E-02, 2.40020E-01, 1.10300E-02, 2.40030E-01,1, 0.00000E+00, 0.00000E+00,  0.000
   301,'3 ', 8.01000E-03, 2.50010E-01, 2.50010E-01, 2.50010E-01, 8.02000E-03, 2.50020E-01, 8.03000E-03, 2.50030E-01,1, 0.00000E+00, 0.00000E+00,  0.000
   401,'1 ', 1.23100E-02, 2.22310E-01, 2.22310E-01, 2.22310E-01, 1.23200E-02, 2.22320E-01, 1.23300E-02, 2.22330E-01,1, 0.00000E+00, 0.00000E+00,  0.000
   402,'1 ', 4.51000E-03, 2.43210E-01, 2.43210E-01, 2.43210E-01, 4.52000E-03, 2.43220E-01, 4.53000E-03, 2.43230E-01,1, 0.00000E+00, 0.00000E+00,  0.000
  3011,'1 ', 7.61000E-03, 3.54310E-01, 3.54310E-01, 3.54310E-01, 7.62000E-03, 3.54320E-01, 7.63000E-03, 3.54330E-01,1, 0.00000E+00, 0.00000E+00,  0.000
  3018,'1 ', 8.70100E-02, 3.56310E-01, 3.56310E-01, 3.56310E-01, 8.70200E-02, 3.56320E-01, 8.70300E-02, 3.56330E-01,1, 0.00000E+00, 0.00000E+00,-25.846
  3018,'2 ', 2.40100E-02, 3.55310E-01, 3.55310E-01, 3.55310E-01, 2.40200E-02, 3.55320E-01, 2.40300E-02, 3.55330E-01,1, 0.00000E+00, 0.00000E+00,-25.846
0  / END OF GENERATOR DATA, BEGIN LOAD DATA
@!!  I,'ID',        PNEG,        QNEG,GRDFLG,  PZERO,       QZERO
   154,'1 ', 3.91160E+01,-7.57897E+01,1, 3.98680E+01, 3.38724E+01
   154,'2 ', 2.44475E+01,-7.57897E+01,1, 2.49175E+01, 3.38724E+01
   154,'3 ', 2.44475E+01,-3.78948E+01,1, 2.49175E+01, 1.69362E+01
   154,'MO', 9.77900E+00,-3.03159E+01,1, 9.96700E+00, 1.35490E+01
   201,'SC', 9.55700E+01, 5.99042E+02,1, 9.92670E+01, 9.84230E+01
  3005,'1 ', 1.00920E+02,-1.00340E+02,1, 9.94670E+01,-9.84230E+01
0  / END OF LOAD DATA, BEGIN ZERO SEQ. NON-TRANSFORMER BRANCH DATA
@!!  I,     J,'ICKT',    RLINZ,      XLINZ,       BCHZ,         GI,         BI,         GJ,         BJ,        IPR,SCTYP
   151,   152,'1 ', 7.10000E-3, 1.21000E-1,    3.34000, 7.10000E-3, 1.21210E-1, 7.13000E-3, 1.32110E-1, 0.00000E+0,0
   151,   152,'2 ', 7.12000E-3, 1.32000E-1,    3.34200, 7.12000E-3, 1.32320E-1, 7.24000E-3, 1.43230E-1, 0.00000E+0,0
   152,   202,'1 ', 2.50000E-3, 3.00000E-2,    0.90000, 0.00000E+0, 0.00000E+0, 0.00000E+0, 0.00000E+0, 0.00000E+0,0
   152,  3004,'1 ', 8.00000E-3, 8.00000E-2,    2.20000, 0.00000E+0, 0.00000E+0, 0.00000E+0, 0.00000E+0, 0.00000E+0,0
   153,   154,'2 ', 1.80000E-2, 1.60000E-1,    0.06000, 0.00000E+0, 0.00000E+0, 0.00000E+0, 0.00000E+0, 0.00000E+0,0
   154,   155,'1 ', 1.00000E+0, 2.00000E-1,    0.09000, 3.00000E-1, 3.00000E+0, 4.00000E-1, 4.00000E+0, 0.00000E+0,0
   154,   203,'1 ', 5.00000E+0, 2.31000E-1,    0.09000, 3.06000E-1, 2.00000E+0, 3.70000E-1, 3.00000E+0, 0.00000E+0,0
   154,   205,'1 ', 2.00000E+0, 2.00000E-1,    0.08000, 3.00000E-1, 4.00000E+0, 4.00000E-1, 5.00000E+0, 0.00000E+0,0
   154,  3008,'1 ', 8.00000E-3, 6.50000E-2,    0.22000, 0.00000E+0, 0.00000E+0, 0.00000E+0, 0.00000E+0, 0.00000E+0,0
   201,   202,'1 ', 5.00000E-3, 7.00000E-2,    1.70000, 0.00000E+0, 0.00000E+0, 0.00000E+0, 0.00000E+0, 0.00000E+0,0
   201,   207,'C1', 4.50000E-3, 4.50000E-2,    0.40000, 0.00000E+0, 0.00000E+0, 0.00000E+0, 0.00000E+0, 0.00000E+0,0
   203,   205,'1 ', 1.50000E-2, 1.30000E-1,    0.06000, 0.00000E+0, 0.00000E+0, 0.00000E+0, 0.00000E+0, 0.00000E+0,0
   204,   207,'C2', 4.50000E-3, 4.50000E-1,    0.40000, 0.00000E+0, 0.00000E+0, 0.00000E+0, 0.00000E+0, 0.00000E+0,0
   205,   214,'2 ', 6.00000E-3, 7.50000E-2,    0.80000, 0.00000E+0, 0.00000E+0, 0.00000E+0, 0.00000E+0, 0.00000E+0,0
   205,   216,'3 ', 1.50000E-2, 1.30000E-1,    0.06000, 0.00000E+0, 0.00000E+0, 0.00000E+0, 0.00000E+0, 0.00000E+0,0
   205,   217,'4 ', 1.50000E-2, 1.30000E-1,    0.06000, 0.00000E+0, 0.00000E+0, 0.00000E+0, 0.00000E+0, 0.00000E+0,0
   205,   218,'5 ', 1.50000E-2, 1.30000E-1,    0.06000, 0.00000E+0, 0.00000E+0, 0.00000E+0, 0.00000E+0, 0.00000E+0,0
   213,   214,'1 ',-0.00000E+0, 1.00000E-2,    0.00000, 0.00000E+0, 0.00000E+0, 0.00000E+0, 0.00000E+0, 0.00000E+0,0
  3001,  3003,'1 ',-0.00000E+0, 8.00000E-3,    0.00000, 0.00000E+0, 0.00000E+0, 0.00000E+0, 0.00000E+0, 0.00000E+0,0
  3002,  3004,'1 ', 1.60000E-2, 1.60000E-1,    0.07000, 0.00000E+0, 0.00000E+0, 0.00000E+0, 0.00000E+0, 0.00000E+0,0
  3005,  3006,'1 ', 8.00000E-3, 8.00000E-2,    0.06000, 0.00000E+0, 0.00000E+0, 0.00000E+0, 0.00000E+0, 0.00000E+0,0
  3005,  3007,'1 ', 7.00000E-3, 7.50000E-2,    0.05500, 0.00000E+0, 0.00000E+0, 0.00000E+0, 0.00000E+0, 0.00000E+0,0
  3007,  3008,'1 ', 7.00000E-3, 7.00000E-2,    0.05500, 0.00000E+0, 0.00000E+0, 0.00000E+0, 0.00000E+0, 0.00000E+0,0
  3008,  3009,'1 ', 7.00000E-3, 7.00000E-2,    0.05500, 0.00000E+0, 0.00000E+0, 0.00000E+0, 0.00000E+0, 0.00000E+0,0
0  / END OF ZERO SEQ. NON-TRANSFORMER BRANCH DATA, BEGIN ZERO SEQ. MUTUAL DATA
@!!  I,     J,'ICKT1',  K,     L,'ICKT2',      RM,         XM,    BIJ1,    BIJ2,    BKL1,    BKL2
   151,   152,'1 ',   151,   152,'2 ', 2.10000E-3, 2.20000E-2, 0.00000, 1.00000, 0.00000, 1.00000
   154,   203,'1 ',   203,   205,'1 ', 1.10000E-3, 1.20000E-2, 0.75000, 1.00000, 0.00000, 0.25000
0  / END OF ZERO SEQ. MUTUAL DATA, BEGIN ZERO SEQ. TRANSFORMER DATA
@!!  I,     J,     K,'ICKT',CZ0,CZG,CC,   RG1,        XG1,        R01,        X01,        RG2,        XG2,        R02,        X02,     RNUTRL,     XNUTRL
@!!  I,     J,     K,'ICKT',CZ0,CZG,CC,   RG1,        XG1,        R01,        X01,        RG2,        XG2,        R02,        X02,        RG3,        XG3,        R03,        X03,     RNUTRL,     XNUTRL
   101,   151,     0,'T1',1,1,  3, 4.80000E-3, 7.20000E-3, 1.00000E-4, 7.71000E-3, 0.00000E+0, 0.00000E+0, 0.00000E+0, 0.00000E+0, 0.00000E+0, 0.00000E+0
   102,   151,     0,'T2',1,1,  3, 4.81000E-3, 7.21000E-3, 1.30000E-4, 7.73000E-3, 0.00000E+0, 0.00000E+0, 0.00000E+0, 0.00000E+0, 0.00000E+0, 0.00000E+0
   152,   153,     0,'T3',1,1,  1, 0.00000E+0, 0.00000E+0, 1.90000E-4, 7.94000E-3, 0.00000E+0, 0.00000E+0, 0.00000E+0, 0.00000E+0, 0.00000E+0, 0.00000E+0
   152,  3021,     0,'T4',1,1,  2, 4.82000E-3, 7.22000E-3, 2.10000E-4, 8.15000E-3, 0.00000E+0, 0.00000E+0, 0.00000E+0, 0.00000E+0, 0.00000E+0, 0.00000E+0
   152,  3022,     0,'T5',1,1,  2, 4.83000E-3, 7.23000E-3, 1.20000E-4, 5.23000E-3, 0.00000E+0, 0.00000E+0, 0.00000E+0, 0.00000E+0, 0.00000E+0, 0.00000E+0
   154,  9154,     0,'W1',1,1,  4, 0.00000E+0, 0.00000E+0, 0.00000E+0, 5.83330E-1, 0.00000E+0, 0.00000E+0, 0.00000E+0, 0.00000E+0, 0.00000E+0, 0.00000E+0
   201,   211,     0,'T6',1,1,  2, 4.84000E-3, 7.24000E-3, 2.60000E-4, 3.43000E-3, 0.00000E+0, 0.00000E+0, 0.00000E+0, 0.00000E+0, 0.00000E+0, 0.00000E+0
   203,   202,     0,'T7',1,1,  1, 0.00000E+0, 0.00000E+0, 7.20000E-4, 7.43000E-3, 0.00000E+0, 0.00000E+0, 0.00000E+0, 0.00000E+0, 0.00000E+0, 0.00000E+0
   204,   205,     0,'T8',1,1,  6, 3.74000E-3, 6.52000E-3, 4.60000E-4, 5.63000E-3, 0.00000E+0, 0.00000E+0, 0.00000E+0, 0.00000E+0, 0.00000E+0, 0.00000E+0
   204,  9204,     0,'W2',1,1,  4, 0.00000E+0, 0.00000E+0, 8.80000E-2, 6.61710E-1, 0.00000E+0, 0.00000E+0, 0.00000E+0, 0.00000E+0, 0.00000E+0, 0.00000E+0
   205,   206,     0,'T9',1,1,  7, 3.75000E-3, 6.53000E-3, 1.80000E-4, 5.33000E-3, 0.00000E+0, 0.00000E+0, 0.00000E+0, 0.00000E+0, 0.00000E+0, 0.00000E+0
   205,   215,   208,'3 ',1,1,  2, 0.00000E+0, 0.00000E+0,-1.50000E-4, 5.83300E-2, 0.00000E+0, 0.00000E+0, 5.30000E-3, 4.41660E-1, 0.00000E+0, 0.00000E+0, 3.90000E-3, 3.58340E-1, 0.00000E+0, 0.00000E+0
   209,   217,   218,'4 ',1,1,  2, 0.00000E+0, 0.00000E+0, 3.24000E-3, 4.51000E-3, 0.00000E+0, 0.00000E+0, 1.53000E-3, 8.33300E-2, 0.00000E+0, 0.00000E+0, 5.37000E-3, 5.16700E-2, 0.00000E+0, 0.00000E+0
  3002, 93002,     0,'W3',1,1,  4, 0.00000E+0, 0.00000E+0, 0.00000E+0, 2.02703E+0, 0.00000E+0, 0.00000E+0, 0.00000E+0, 0.00000E+0, 0.00000E+0, 0.00000E+0
  3001,  3002,  3011,'1 ',1,1,  1, 0.00000E+0, 0.00000E+0, 3.45000E-3, 2.51000E-3, 0.00000E+0, 0.00000E+0, 4.56000E-3, 1.25000E-3, 0.00000E+0, 0.00000E+0, 7.89000E-3, 1.87000E-3, 0.00000E+0, 0.00000E+0
  3005,  3004,     0,'10',1,1,  5, 3.76000E-3, 6.54000E-3, 3.60000E-4, 9.91000E-3, 0.00000E+0, 0.00000E+0, 0.00000E+0, 0.00000E+0, 0.00000E+0, 0.00000E+0
  3008,  3018,     0,'11',1,1,  4, 0.00000E+0, 0.00000E+0, 4.40000E-4, 1.27600E-2, 0.00000E+0, 0.00000E+0, 0.00000E+0, 0.00000E+0, 0.00000E+0, 0.00000E+0
  3008,  3012,  3010,'2 ',1,1,  2, 0.00000E+0, 0.00000E+0, 0.00000E+0, 1.00000E-4, 0.00000E+0, 0.00000E+0, 0.00000E+0, 1.00000E-4, 0.00000E+0, 0.00000E+0, 0.00000E+0, 1.00000E-4, 0.00000E+0, 0.00000E+0
0  / END OF ZERO SEQ. TRANSFORMER DATA, BEGIN ZERO SEQ. SWITCHED SHUNT DATA
@!!  I,       BZ1,       BZ2,       BZ3,       BZ4,       BZ5,       BZ6,       BZ7,       BZ8
   152,    -0.900,    -0.910,    -0.920,    -0.930,    -0.940,    -0.950,    -0.960,    -0.970
   154,     0.810,     0.820,     0.830,     0.840,     0.850,     0.860,     0.870,     0.880
  3005,     0.950
  3021,     0.000,     0.000,     0.000,     0.000
  3022,     0.000,     0.000,     0.000,     0.000,     0.000
 93002,     0.000
0  / END OF ZERO SEQ. SWITCHED SHUNT DATA, BEGIN ZERO SEQ. FIXED SHUNT DATA
@!!  I,'ID',      GSZERO,      BSZERO
   151,'F1', 4.70000E+00,-3.97000E+02
   151,'F3', 3.10000E+00, 1.97000E+02
0  / END OF ZERO SEQ. FIXED SHUNT DATA, BEGIN INDUCTION MACHINE DATA
@!!  I,'ID',CZG,GRDFLG,ILR2IR,       RTOX,         ZR0,         ZX0,         ZRG,         ZXG,  ILR2IR_TRN,    RTOX_TRN,  ILR2IR_NEG,    RTOX_NEG
  3010,'1 ',1,0, 5.00000E+00, 1.00000E-01, 0.00000E+00, 0.00000E+00, 0.00000E+00, 0.00000E+00, 6.25000E+00, 1.10000E-01, 5.16700E+00, 1.40000E-01
  9154,'1 ',2,1, 4.00000E+00, 1.00000E-01, 2.50000E-02, 1.10000E-01, 0.00000E+00, 5.00000E+00, 5.75000E+00, 1.20000E-01, 4.23600E+00, 1.50000E-01
  9204,'1 ',1,0, 4.70000E+00, 9.80000E-02, 0.00000E+00, 0.00000E+00, 0.00000E+00, 0.00000E+00, 5.96000E+00, 1.30000E-01, 4.96300E+00, 1.56000E-02
 93002,'1 ',2,1, 5.20000E+00, 9.50000E-02, 2.50000E-02, 1.10000E-01, 0.00000E+00, 7.00000E+00, 7.25600E+00, 1.40000E-01, 5.47200E+00, 1.78000E-02
0  / END OF INDUCTION MACHINE DATA, BEGIN NON CONVENTIONAL SOURCE FAULT CONTRIBUTION DATA
@!!  I,'ID',      T1,     C1P,     C1Q,      T2,     C2P,     C2Q,      T3,     C3P,     C3Q,      T4,     C4P,     C4Q,      T5,     C5P,     C5Q,      T6,     C6P,     C6Q
   206,'1 ', 0.00000,  0.1681,  3.9768, 0.03300,  0.1429,  3.3803, 0.06666,  0.1009,  2.3861
  3011,'1 ', 0.00000,  0.0605,  2.8212, 0.03300,  0.0484,  2.2570, 0.05833,  0.0303,  1.4106
0  / END OF NON CONVENTIONAL SOURCE FAULT CONTRIBUTION DATA
Q
